# generated using pymatgen
data_TiS2
_symmetry_space_group_name_H-M   'P 1'
_cell_length_a   3.42574169
_cell_length_b   3.42574169
_cell_length_c   18.05176449
_cell_angle_alpha   90.00000000
_cell_angle_beta   90.00000000
_cell_angle_gamma   120.00000000
_symmetry_Int_Tables_number   1
_chemical_formula_structural   TiS2
_chemical_formula_sum   'Ti3 S6'
_cell_volume   183.46765801
_cell_formula_units_Z   3
loop_
 _symmetry_equiv_pos_site_id
 _symmetry_equiv_pos_as_xyz
  1  'x, y, z'
loop_
 _atom_type_symbol
 _atom_type_oxidation_number
  Ti4+  4.0
  S2-  -2.0
loop_
 _atom_site_type_symbol
 _atom_site_label
 _atom_site_symmetry_multiplicity
 _atom_site_fract_x
 _atom_site_fract_y
 _atom_site_fract_z
 _atom_site_occupancy
  Ti4+  Ti0  1  0.33333333  0.66666667  0.49978761  1
  Ti4+  Ti1  1  0.33333333  0.66666667  0.83708163  1
  Ti4+  Ti2  1  0.33333333  0.66666667  0.16314089  1
  S2-  S3  1  0.66666667  0.33333333  0.57745504  1
  S2-  S4  1  0.66666667  0.33333333  0.91468248  1
  S2-  S5  1  0.66666667  0.33333333  0.24087946  1
  S2-  S6  1  0.00000000  0.00000000  0.75928381  1
  S2-  S7  1  0.00000000  0.00000000  0.08559468  1
  S2-  S8  1  0.00000000  0.00000000  0.42209439  1
