# generated using pymatgen
data_Th3Sb4
_symmetry_space_group_name_H-M   I-43d
_cell_length_a   9.46328522
_cell_length_b   9.46328522
_cell_length_c   9.46328522
_cell_angle_alpha   90.00000000
_cell_angle_beta   90.00000000
_cell_angle_gamma   90.00000000
_symmetry_Int_Tables_number   220
_chemical_formula_structural   Th3Sb4
_chemical_formula_sum   'Th12 Sb16'
_cell_volume   847.47284100
_cell_formula_units_Z   4
loop_
 _symmetry_equiv_pos_site_id
 _symmetry_equiv_pos_as_xyz
  1  'x, y, z'
  2  'x, y, z'
  3  'y+1/4, -x+3/4, -z+1/4'
  4  'y+1/4, -x+3/4, -z+1/4'
  5  '-x, -y+1/2, z'
  6  '-x, -y+1/2, z'
  7  '-y+3/4, x+3/4, -z+1/4'
  8  '-y+3/4, x+3/4, -z+1/4'
  9  'x, -y, -z+1/2'
  10  'x, -y, -z+1/2'
  11  'y+1/4, x+1/4, z+1/4'
  12  'y+1/4, x+1/4, z+1/4'
  13  '-x, y+1/2, -z+1/2'
  14  '-x, y+1/2, -z+1/2'
  15  '-y+3/4, -x+1/4, z+1/4'
  16  '-y+3/4, -x+1/4, z+1/4'
  17  'z, x, y'
  18  'z, x, y'
  19  '-z+1/4, y+1/4, -x+3/4'
  20  '-z+1/4, y+1/4, -x+3/4'
  21  'z, -x, -y+1/2'
  22  'z, -x, -y+1/2'
  23  '-z+1/4, -y+3/4, x+3/4'
  24  '-z+1/4, -y+3/4, x+3/4'
  25  '-z+1/2, x, -y'
  26  '-z+1/2, x, -y'
  27  'z+1/4, y+1/4, x+1/4'
  28  'z+1/4, y+1/4, x+1/4'
  29  '-z+1/2, -x, y+1/2'
  30  '-z+1/2, -x, y+1/2'
  31  'z+1/4, -y+3/4, -x+1/4'
  32  'z+1/4, -y+3/4, -x+1/4'
  33  'y, z, x'
  34  'y, z, x'
  35  '-x+3/4, -z+1/4, y+1/4'
  36  '-x+3/4, -z+1/4, y+1/4'
  37  '-y+1/2, z, -x'
  38  '-y+1/2, z, -x'
  39  'x+3/4, -z+1/4, -y+3/4'
  40  'x+3/4, -z+1/4, -y+3/4'
  41  '-y, -z+1/2, x'
  42  '-y, -z+1/2, x'
  43  'x+1/4, z+1/4, y+1/4'
  44  'x+1/4, z+1/4, y+1/4'
  45  'y+1/2, -z+1/2, -x'
  46  'y+1/2, -z+1/2, -x'
  47  '-x+1/4, z+1/4, -y+3/4'
  48  '-x+1/4, z+1/4, -y+3/4'
  49  'x+1/2, y+1/2, z+1/2'
  50  'x+1/2, y+1/2, z+1/2'
  51  'y+3/4, -x+1/4, -z+3/4'
  52  'y+3/4, -x+1/4, -z+3/4'
  53  '-x+1/2, -y, z+1/2'
  54  '-x+1/2, -y, z+1/2'
  55  '-y+1/4, x+1/4, -z+3/4'
  56  '-y+1/4, x+1/4, -z+3/4'
  57  'x+1/2, -y+1/2, -z'
  58  'x+1/2, -y+1/2, -z'
  59  'y+3/4, x+3/4, z+3/4'
  60  'y+3/4, x+3/4, z+3/4'
  61  '-x+1/2, y, -z'
  62  '-x+1/2, y, -z'
  63  '-y+1/4, -x+3/4, z+3/4'
  64  '-y+1/4, -x+3/4, z+3/4'
  65  'z+1/2, x+1/2, y+1/2'
  66  'z+1/2, x+1/2, y+1/2'
  67  '-z+3/4, y+3/4, -x+1/4'
  68  '-z+3/4, y+3/4, -x+1/4'
  69  'z+1/2, -x+1/2, -y'
  70  'z+1/2, -x+1/2, -y'
  71  '-z+3/4, -y+1/4, x+1/4'
  72  '-z+3/4, -y+1/4, x+1/4'
  73  '-z, x+1/2, -y+1/2'
  74  '-z, x+1/2, -y+1/2'
  75  'z+3/4, y+3/4, x+3/4'
  76  'z+3/4, y+3/4, x+3/4'
  77  '-z, -x+1/2, y'
  78  '-z, -x+1/2, y'
  79  'z+3/4, -y+1/4, -x+3/4'
  80  'z+3/4, -y+1/4, -x+3/4'
  81  'y+1/2, z+1/2, x+1/2'
  82  'y+1/2, z+1/2, x+1/2'
  83  '-x+1/4, -z+3/4, y+3/4'
  84  '-x+1/4, -z+3/4, y+3/4'
  85  '-y, z+1/2, -x+1/2'
  86  '-y, z+1/2, -x+1/2'
  87  'x+1/4, -z+3/4, -y+1/4'
  88  'x+1/4, -z+3/4, -y+1/4'
  89  '-y+1/2, -z, x+1/2'
  90  '-y+1/2, -z, x+1/2'
  91  'x+3/4, z+3/4, y+3/4'
  92  'x+3/4, z+3/4, y+3/4'
  93  'y, -z, -x+1/2'
  94  'y, -z, -x+1/2'
  95  '-x+3/4, z+3/4, -y+1/4'
  96  '-x+3/4, z+3/4, -y+1/4'
loop_
 _atom_site_type_symbol
 _atom_site_label
 _atom_site_symmetry_multiplicity
 _atom_site_fract_x
 _atom_site_fract_y
 _atom_site_fract_z
 _atom_site_occupancy
  Th  Th0  12  0.00000000  0.25000000  0.87500000  1
  Sb  Sb1  16  0.07909716  0.42090284  0.57909716  1
