# generated using pymatgen
data_KS
_symmetry_space_group_name_H-M   P-62m
_cell_length_a   8.51254370
_cell_length_b   8.51254370
_cell_length_c   5.84614012
_cell_angle_alpha   90.00000000
_cell_angle_beta   90.00000000
_cell_angle_gamma   120.00000000
_symmetry_Int_Tables_number   189
_chemical_formula_structural   KS
_chemical_formula_sum   'K6 S6'
_cell_volume   366.87537367
_cell_formula_units_Z   6
loop_
 _symmetry_equiv_pos_site_id
 _symmetry_equiv_pos_as_xyz
  1  'x, y, z'
  2  'x, y, z'
  3  '-x+y, -x, -z'
  4  '-x+y, -x, -z'
  5  '-y, x-y, z'
  6  '-y, x-y, z'
  7  'x, y, -z'
  8  'x, y, -z'
  9  '-x+y, -x, z'
  10  '-x+y, -x, z'
  11  '-y, x-y, -z'
  12  '-y, x-y, -z'
  13  'y, x, z'
  14  'y, x, z'
  15  '-x, -x+y, -z'
  16  '-x, -x+y, -z'
  17  'x-y, -y, z'
  18  'x-y, -y, z'
  19  'y, x, -z'
  20  'y, x, -z'
  21  '-x, -x+y, z'
  22  '-x, -x+y, z'
  23  'x-y, -y, -z'
  24  'x-y, -y, -z'
loop_
 _atom_site_type_symbol
 _atom_site_label
 _atom_site_symmetry_multiplicity
 _atom_site_fract_x
 _atom_site_fract_y
 _atom_site_fract_z
 _atom_site_occupancy
  K  K0  3  0.00000000  0.30714325  0.00000000  1
  K  K1  3  0.00000000  0.64213592  0.50000000  1
  S  S2  4  0.33333333  0.66666667  0.18223921  1
  S  S3  2  0.00000000  0.00000000  0.31902389  1
