# generated using pymatgen
data_Ga2S3
_symmetry_space_group_name_H-M   Cc
_cell_length_a   11.23009100
_cell_length_b   6.45523076
_cell_length_c   7.05343939
_cell_angle_alpha   90.00000000
_cell_angle_beta   121.01692296
_cell_angle_gamma   90.00000000
_symmetry_Int_Tables_number   9
_chemical_formula_structural   Ga2S3
_chemical_formula_sum   'Ga8 S12'
_cell_volume   438.21221672
_cell_formula_units_Z   4
loop_
 _symmetry_equiv_pos_site_id
 _symmetry_equiv_pos_as_xyz
  1  'x, y, z'
  2  'x, y, z'
  3  'x, -y, z+1/2'
  4  'x, -y, z+1/2'
  5  'x+1/2, y+1/2, z'
  6  'x+1/2, y+1/2, z'
  7  'x+1/2, -y+1/2, z+1/2'
  8  'x+1/2, -y+1/2, z+1/2'
loop_
 _atom_site_type_symbol
 _atom_site_label
 _atom_site_symmetry_multiplicity
 _atom_site_fract_x
 _atom_site_fract_y
 _atom_site_fract_z
 _atom_site_occupancy
  Ga  Ga0  4  0.29712702  0.43366517  0.88035272  1
  Ga  Ga1  4  0.45592617  0.09688384  0.37094077  1
  S  S2  4  0.16005103  0.41143380  0.49715829  1
  S  S3  4  0.32650420  0.08703886  0.98814171  1
  S  S4  4  0.49939160  0.41038918  0.51440351  1
