# generated using pymatgen
data_FeSi
_symmetry_space_group_name_H-M   P2_13
_cell_length_a   4.40220979
_cell_length_b   4.40220979
_cell_length_c   4.40220979
_cell_angle_alpha   90.00000000
_cell_angle_beta   90.00000000
_cell_angle_gamma   90.00000000
_symmetry_Int_Tables_number   198
_chemical_formula_structural   FeSi
_chemical_formula_sum   'Fe4 Si4'
_cell_volume   85.31240907
_cell_formula_units_Z   4
loop_
 _symmetry_equiv_pos_site_id
 _symmetry_equiv_pos_as_xyz
  1  'x, y, z'
  2  'x, y, z'
  3  '-x+1/2, -y, z+1/2'
  4  '-x+1/2, -y, z+1/2'
  5  'x+1/2, -y+1/2, -z'
  6  'x+1/2, -y+1/2, -z'
  7  '-x, y+1/2, -z+1/2'
  8  '-x, y+1/2, -z+1/2'
  9  'z, x, y'
  10  'z, x, y'
  11  'z+1/2, -x+1/2, -y'
  12  'z+1/2, -x+1/2, -y'
  13  '-z, x+1/2, -y+1/2'
  14  '-z, x+1/2, -y+1/2'
  15  '-z+1/2, -x, y+1/2'
  16  '-z+1/2, -x, y+1/2'
  17  'y, z, x'
  18  'y, z, x'
  19  '-y, z+1/2, -x+1/2'
  20  '-y, z+1/2, -x+1/2'
  21  '-y+1/2, -z, x+1/2'
  22  '-y+1/2, -z, x+1/2'
  23  'y+1/2, -z+1/2, -x'
  24  'y+1/2, -z+1/2, -x'
loop_
 _atom_site_type_symbol
 _atom_site_label
 _atom_site_symmetry_multiplicity
 _atom_site_fract_x
 _atom_site_fract_y
 _atom_site_fract_z
 _atom_site_occupancy
  Fe  Fe0  4  0.13691231  0.13691231  0.13691231  1
  Si  Si1  4  0.15869827  0.34130173  0.65869827  1
