# generated using pymatgen
data_CdAs2
_symmetry_space_group_name_H-M   I4_122
_cell_length_a   8.03811770
_cell_length_b   8.03811770
_cell_length_c   4.72563470
_cell_angle_alpha   90.00000000
_cell_angle_beta   90.00000000
_cell_angle_gamma   90.00000000
_symmetry_Int_Tables_number   98
_chemical_formula_structural   CdAs2
_chemical_formula_sum   'Cd4 As8'
_cell_volume   305.32957270
_cell_formula_units_Z   4
loop_
 _symmetry_equiv_pos_site_id
 _symmetry_equiv_pos_as_xyz
  1  'x, y, z'
  2  'x, y, z'
  3  '-y, x+1/2, z+1/4'
  4  '-y, x+1/2, z+1/4'
  5  '-x+1/2, -y+1/2, z+1/2'
  6  '-x+1/2, -y+1/2, z+1/2'
  7  'y+1/2, -x, z+3/4'
  8  'y+1/2, -x, z+3/4'
  9  'x, -y+1/2, -z+1/4'
  10  'x, -y+1/2, -z+1/4'
  11  '-y, -x, -z'
  12  '-y, -x, -z'
  13  '-x+1/2, y, -z+3/4'
  14  '-x+1/2, y, -z+3/4'
  15  'y+1/2, x+1/2, -z+1/2'
  16  'y+1/2, x+1/2, -z+1/2'
  17  'x+1/2, y+1/2, z+1/2'
  18  'x+1/2, y+1/2, z+1/2'
  19  '-y+1/2, x, z+3/4'
  20  '-y+1/2, x, z+3/4'
  21  '-x, -y, z'
  22  '-x, -y, z'
  23  'y, -x+1/2, z+1/4'
  24  'y, -x+1/2, z+1/4'
  25  'x+1/2, -y, -z+3/4'
  26  'x+1/2, -y, -z+3/4'
  27  '-y+1/2, -x+1/2, -z+1/2'
  28  '-y+1/2, -x+1/2, -z+1/2'
  29  '-x, y+1/2, -z+1/4'
  30  '-x, y+1/2, -z+1/4'
  31  'y, x, -z'
  32  'y, x, -z'
loop_
 _atom_site_type_symbol
 _atom_site_label
 _atom_site_symmetry_multiplicity
 _atom_site_fract_x
 _atom_site_fract_y
 _atom_site_fract_z
 _atom_site_occupancy
  Cd  Cd0  4  0.00000000  0.00000000  0.00000000  1
  As  As1  8  0.06170692  0.25000000  0.62500000  1
