# generated using pymatgen
data_Ga2HgS4
_symmetry_space_group_name_H-M   I-4
_cell_length_a   5.58218961
_cell_length_b   5.58218961
_cell_length_c   10.29338885
_cell_angle_alpha   90.00000000
_cell_angle_beta   90.00000000
_cell_angle_gamma   90.00000000
_symmetry_Int_Tables_number   82
_chemical_formula_structural   Ga2HgS4
_chemical_formula_sum   'Ga4 Hg2 S8'
_cell_volume   320.75065122
_cell_formula_units_Z   2
loop_
 _symmetry_equiv_pos_site_id
 _symmetry_equiv_pos_as_xyz
  1  'x, y, z'
  2  'x, y, z'
  3  'y, -x, -z'
  4  'y, -x, -z'
  5  '-x, -y, z'
  6  '-x, -y, z'
  7  '-y, x, -z'
  8  '-y, x, -z'
  9  'x+1/2, y+1/2, z+1/2'
  10  'x+1/2, y+1/2, z+1/2'
  11  'y+1/2, -x+1/2, -z+1/2'
  12  'y+1/2, -x+1/2, -z+1/2'
  13  '-x+1/2, -y+1/2, z+1/2'
  14  '-x+1/2, -y+1/2, z+1/2'
  15  '-y+1/2, x+1/2, -z+1/2'
  16  '-y+1/2, x+1/2, -z+1/2'
loop_
 _atom_site_type_symbol
 _atom_site_label
 _atom_site_symmetry_multiplicity
 _atom_site_fract_x
 _atom_site_fract_y
 _atom_site_fract_z
 _atom_site_occupancy
  Ga  Ga0  2  0.00000000  0.00000000  0.50000000  1
  Ga  Ga1  2  0.00000000  0.50000000  0.75000000  1
  Hg  Hg2  2  0.00000000  0.00000000  0.00000000  1
  S  S3  8  0.22670813  0.76976117  0.63662577  1
