# generated using pymatgen
data_AlAsO4
_symmetry_space_group_name_H-M   P3_121
_cell_length_a   5.02705592
_cell_length_b   5.02705592
_cell_length_c   11.27146938
_cell_angle_alpha   90.00000000
_cell_angle_beta   90.00000000
_cell_angle_gamma   120.00000000
_symmetry_Int_Tables_number   152
_chemical_formula_structural   AlAsO4
_chemical_formula_sum   'Al3 As3 O12'
_cell_volume   246.68264712
_cell_formula_units_Z   3
loop_
 _symmetry_equiv_pos_site_id
 _symmetry_equiv_pos_as_xyz
  1  'x, y, z'
  2  'x, y, z'
  3  '-y, x-y, z+1/3'
  4  '-y, x-y, z+1/3'
  5  '-x+y, -x, z+2/3'
  6  '-x+y, -x, z+2/3'
  7  'y, x, -z'
  8  'y, x, -z'
  9  'x-y, -y, -z+2/3'
  10  'x-y, -y, -z+2/3'
  11  '-x, -x+y, -z+1/3'
  12  '-x, -x+y, -z+1/3'
loop_
 _atom_site_type_symbol
 _atom_site_label
 _atom_site_symmetry_multiplicity
 _atom_site_fract_x
 _atom_site_fract_y
 _atom_site_fract_z
 _atom_site_occupancy
  Al  Al0  3  0.00000000  0.45591184  0.66666667  1
  As  As1  3  0.00000000  0.45462312  0.16666667  1
  O  O2  6  0.10615022  0.70068192  0.28173869  1
  O  O3  6  0.11476988  0.71085906  0.78690387  1
